.title KiCad schematic
.model __Q1 PNP
.probe alli
.probe p(V1)
.probe p(R1)
.probe p(Q1)


.tran 0 5m
.print tran v(unconnected-_R1-Pad1_)
.op
V1 Net-_Q1-B_ 0 DC 1 
R1 unconnected-_R1-Pad1_ Net-_Q1-C_ 1000
Q1 Net-_Q1-C_ Net-_Q1-B_ 0 __Q1
.end
