.title KiCad schematic
.model __D2 D
+           rs=50m
+           cjo=10p
.model __S1 VSWITCH
+           vt=0
+           ron=1
.model __D1 D
+           rs=50m
+           cjo=10p

.tran 0 10m 0.001m
.print tran v(VOUT)
L1 Net-_D1-A_ VOUT 10u
C1 0 VOUT 100u
R1 0 VOUT 10
D2 0 Net-_D1-A_ __D2
S1 Net-_D1-A_ Net-_D1-K_ Net-_S1-C+_ 0 __S1
V2 Net-_S1-C+_ 0 PULSE( 0 10 10u 100u 1n 10 2 ) 
D1 Net-_D1-A_ Net-_D1-K_ __D1
V1 Net-_D1-K_ 0 DC 10 
.end
