Low Pass Filter
*
* Voltage Sources
VIN 1 0 SIN(0V 10V 1kHz)
* Analysis Command
.TRAN 2ns 2ms
* Output
.PRINT TRAN V(0) V(1) V(2)

* Resistors
R1 1 2 1K

C1 2 0 0.47u
*
.END