* Simple RC Circuit
R1 in out 1000.0 ;OPTIMIZE
C1 out 0 4.6999999999999995e-07 ;OPTIMIZE
V1 in 0 pulse(0 5 0 1n 1n 0.5m 1m)
.tran 1u 2m
.print tran V(out) V(in)
.end
